*Heading
UMMDp Example - Hole Expansion Test
** Generated by: Abaqus/CAE 6.14-3
*Preprint, echo=NO, model=NO, history=NO, contact=NO
**
** PARTS
**
*Part, name=blankholder
*Node
      1,           0.,        -100.,           0.
      2,           0.,         -60.,           0.
      3,          60.,           0.,           0.
      4,         100.,           0.,           0.
      5,           0.,         100.,           0.
      6,           0.,          60.,           0.
      7,           0.,         -55.,          -5.
      8,          55.,           0.,          -5.
      9,           0.,          55.,          -5.
     10,           0.,         -95.,           0.
     11,           0.,         -90.,           0.
     12,           0.,         -85.,           0.
     13,           0.,         -80.,           0.
     14,           0.,         -75.,           0.
     15,           0.,         -70.,           0.
     16,           0.,         -65.,           0.
     17,   2.61716318,   -59.942894,           0.
     18,   5.22934437,  -59.7716827,           0.
     19,   7.83157158,  -59.4866905,           0.
     20,    10.418891,  -59.0884666,           0.
** ... 2428 like lines cut
*Element, type=S4
  1,   1,  10, 475,  93
  2,  10,  11, 476, 475
  3,  11,  12, 477, 476
  4,  12,  13, 478, 477
  5,  13,  14, 479, 478
  6,  14,  15, 480, 479
  7,  15,  16, 481, 480
  8,  16,   2,  17, 481
  9,  93, 475, 482,  92
 10, 475, 476, 483, 482
 11, 476, 477, 484, 483
 12, 477, 478, 485, 484
 13, 478, 479, 486, 485
 14, 479, 480, 487, 486
 15, 480, 481, 488, 487
 16, 481,  17,  18, 488
 17,  92, 482, 489,  91
 18, 482, 483, 490, 489
 19, 483, 484, 491, 490
 20, 484, 485, 492, 491
** ... 2284 like lines cut
*Node
   2449,           0.,  -9.06671944e-15,          -5.
*Nset, nset=blankholder-RefPt_, internal
2449, 
*Nset, nset=Set-5, generate
    1,  2448,     1
*Elset, elset=Set-5, generate
    1,  2304,     1
** Section: rigid
*Shell Section, elset=Set-5, material=elastic, offset=SNEG
1.0, 5
*End Part
**  
*Part, name=die
*Node
      1,           0.,         -65.,   15.6599998
      2,           0.,         -80.,  0.660000026
      3,          80.,           0.,  0.660000026
      4,          65.,           0.,   15.6599998
      5,           0.,          65.,   15.6599998
      6,           0.,          80.,  0.660000026
      7,           0.,        -100.,  0.660000026
      8,         100.,           0.,  0.660000026
      9,           0.,         100.,  0.660000026
     10,           0.,  -65.0321198,   14.6789532
     11,           0.,  -65.1283264,   13.7021074
     12,           0.,  -65.2882233,   12.7336454
     13,           0.,   -65.511116,   11.7777147
     14,           0.,   -65.796051,   10.8384085
     15,           0.,  -66.1418076,   9.91974831
     16,           0.,  -66.5469055,   9.02567005
     17,           0.,  -67.0096207,   8.15999985
     18,           0.,  -67.5279541,   7.32644653
     19,           0.,  -68.0997009,   6.52857876
     20,           0.,  -68.7224045,   5.76981258
** ... 6460 like lines cut
*Element, type=S4
  1,    1,   10,  559,  125
  2,   10,   11,  560,  559
  3,   11,   12,  561,  560
  4,   12,   13,  562,  561
  5,   13,   14,  563,  562
  6,   14,   15,  564,  563
  7,   15,   16,  565,  564
  8,   16,   17,  566,  565
  9,   17,   18,  567,  566
 10,   18,   19,  568,  567
 11,   19,   20,  569,  568
 12,   20,   21,  570,  569
 13,   21,   22,  571,  570
 14,   22,   23,  572,  571
 15,   23,   24,  573,  572
 16,   24,   25,  574,  573
 17,   25,   26,  575,  574
 18,   26,   27,  576,  575
 19,   27,   28,  577,  576
 20,   28,   29,  578,  577
** ... 6316 like lines cut
*Node
   6481,           0.,  1.81909575e-14,   15.6599998
*Nset, nset=die-RefPt_, internal
6481, 
*Nset, nset=Set-6, generate
    1,  6480,     1
*Elset, elset=Set-6, generate
    1,  6336,     1
** Section: rigid
*Shell Section, elset=Set-6, material=elastic, offset=SNEG
1.0, 5
*End Part
**  
*Part, name=punch
*Node
      1,         -50.,           0.,         -15.
      2,         -35.,           0.,           0.
      3,           0.,         -35.,           0.
      4,           0.,         -50.,         -15.
      5,           0.,           0.,           0.
      6,          35.,           0.,           0.
      7,           0.,          35.,           0.
      8,          50.,           0.,         -15.
      9,           0.,          50.,         -15.
     10,  -49.9678841,           0.,  -14.0189533
     11,  -49.8716736,           0.,  -13.0421076
     12,  -49.7117805,           0.,  -12.0736456
     13,  -49.4888878,           0.,  -11.1177139
     14,  -49.2039528,           0.,  -10.1784077
     15,  -48.8581924,           0.,  -9.25974846
     16,  -48.4530907,           0.,  -8.36566925
     17,  -47.9903793,           0.,         -7.5
     18,  -47.4720459,           0.,  -6.66644669
     19,  -46.9002991,           0.,  -5.86857843
     20,  -46.2775955,           0.,  -5.10981274
** ... 4445 like lines cut
*Element, type=S4
  1,    1,   10,  406,  125
  2,   10,   11,  407,  406
  3,   11,   12,  408,  407
  4,   12,   13,  409,  408
  5,   13,   14,  410,  409
  6,   14,   15,  411,  410
  7,   15,   16,  412,  411
  8,   16,   17,  413,  412
  9,   17,   18,  414,  413
 10,   18,   19,  415,  414
 11,   19,   20,  416,  415
 12,   20,   21,  417,  416
 13,   21,   22,  418,  417
 14,   22,   23,  419,  418
 15,   23,   24,  420,  419
 16,   24,   25,  421,  420
 17,   25,   26,  422,  421
 18,   26,   27,  423,  422
 19,   27,   28,  424,  423
 20,   28,   29,  425,  424
** ... 4300 like lines cut
*Element, type=S3
1081,    5,  126, 1211
1082,    5, 1211, 1217
1083,    5, 1217, 1223
1084,    5, 1223, 1229
1085,    5, 1229, 1235
1086,    5, 1235, 1241
1087,    5, 1241, 1247
1088,    5, 1247, 1253
1089,    5, 1253, 1259
1090,    5, 1259, 1265
1091,    5, 1265, 1271
1092,    5, 1271, 1277
1093,    5, 1277, 1283
1094,    5, 1283, 1289
1095,    5, 1289, 1295
1096,    5, 1295, 1301
1097,    5, 1301, 1307
1098,    5, 1307, 1313
1099,    5, 1313, 1319
1100,    5, 1319, 1325
** ... 124 like lines cut
*Node
   4466,           0.,           0.,           0.
*Nset, nset=punch-RefPt_, internal
4466, 
*Nset, nset=Set-8, generate
    1,  4465,     1
*Elset, elset=Set-8, generate
    1,  4464,     1
** Section: rigid
*Shell Section, elset=Set-8, material=elastic, offset=SNEG
1.0, 5
*End Part
**  
*Part, name=sheet
*Node
      1,          15.,           0.,  0.330000013
      2,   14.9857197,  0.654290795,  0.330000013
      3,   14.9429197,   1.30733597,  0.330000013
      4,   14.8716698,   1.95789301,  0.330000013
      5,   14.7721205,   2.60472298,  0.330000013
      6,   14.6444397,   3.24659395,  0.330000013
      7,   14.4888897,   3.88228607,  0.330000013
      8,   14.3057499,   4.51058722,  0.330000013
      9,   14.0953903,   5.13030195,  0.330000013
     10,   13.8581896,   5.74025202,  0.330000013
     11,   13.5946198,   6.33927393,  0.330000013
     12,   13.3051596,     6.926229,  0.330000013
     13,   12.9903803,          7.5,  0.330000013
     14,   12.6508703,   8.05949402,  0.330000013
     15,   12.2872801,   8.60364628,  0.330000013
     16,      11.9003,   9.13142109,  0.330000013
     17,   11.4906702,   9.64181423,  0.330000013
     18,   11.0591602,   10.1338501,  0.330000013
     19,   10.6065998,   10.6065998,  0.330000013
     20,   10.1338501,   11.0591602,  0.330000013
** ... 2977 like lines cut
*Element, type=S4
   1,   38,   39,    2,    1
   2,   39,   40,    3,    2
   3,   40,   41,    4,    3
   4,   41,   42,    5,    4
   5,   42,   43,    6,    5
   6,   43,   44,    7,    6
   7,   44,   45,    8,    7
   8,   45,   46,    9,    8
   9,   46,   47,   10,    9
  10,   47,   48,   11,   10
  11,   48,   49,   12,   11
  12,   49,   50,   13,   12
  13,   50,   51,   14,   13
  14,   51,   52,   15,   14
  15,   52,   53,   16,   15
  16,   53,   54,   17,   16
  17,   54,   55,   18,   17
  18,   55,   56,   19,   18
  19,   56,   57,   20,   19
  20,   57,   58,   21,   20
** ... 2860 like lines cut
*Elset, elset=Set-2, generate
    1,  2880,     1
** Section: sheet
*Shell Section, elset=Set-2, material=sheet
 0.65, 5
*Transverse Shear Stiffness
 41667, 41667
**
*End Part
**  
**
** ASSEMBLY
**
*Assembly, name=Assembly
**  
*Instance, name=blankholder-1, part=blankholder
*End Instance
**  
*Instance, name=die-1, part=die
*End Instance
**  
*Instance, name=punch-1, part=punch
*End Instance
**  
*Instance, name=sheet-1, part=sheet
*End Instance
**  
*Nset, nset=Set-2, instance=punch-1
 4466,
*Nset, nset=Set-3, instance=blankholder-1
 2449,
*Nset, nset=Set-4, instance=die-1
 6481,
*Nset, nset=Set-5, instance=sheet-1, generate
 2961,  2997,     1
*Nset, nset=Set-6, instance=sheet-1, generate
    1,  2961,    37
*Nset, nset=Set-7, instance=sheet-1, generate
   37,  2997,    37
*Nset, nset=b_Set-8, instance=die-1, generate
    1,  6480,     1
*Elset, elset=b_Set-8, instance=die-1, generate
    1,  6336,     1
*Nset, nset=b_Set-10, instance=blankholder-1, generate
    1,  2448,     1
*Elset, elset=b_Set-10, instance=blankholder-1, generate
    1,  2304,     1
*Nset, nset=b_Set-12, instance=punch-1, generate
    1,  4465,     1
*Elset, elset=b_Set-12, instance=punch-1, generate
    1,  4464,     1
*Nset, nset=_PickedSet35, internal, instance=die-1
 6481,
*Nset, nset=_PickedSet37, internal, instance=blankholder-1
 2449,
*Nset, nset=_PickedSet39, internal, instance=punch-1
 4466,
*Elset, elset=_Sheet-up_SPOS, internal, instance=sheet-1, generate
    1,  2880,     1
*Surface, type=ELEMENT, name=Sheet-up
_Sheet-up_SPOS, SPOS
*Elset, elset=_blankholder_SNEG, internal, instance=blankholder-1, generate
    1,  2304,     1
*Surface, type=ELEMENT, name=blankholder
_blankholder_SNEG, SNEG
*Elset, elset=_die_SNEG, internal, instance=die-1, generate
    1,  6336,     1
*Surface, type=ELEMENT, name=die
_die_SNEG, SNEG
*Elset, elset=_punch_SNEG, internal, instance=punch-1, generate
    1,  4464,     1
*Surface, type=ELEMENT, name=punch
_punch_SNEG, SNEG
*Elset, elset=_sheet-down_SNEG, internal, instance=sheet-1, generate
    1,  2880,     1
*Surface, type=ELEMENT, name=sheet-down
_sheet-down_SNEG, SNEG
** Constraint: blankholder
*Rigid Body, ref node=_PickedSet37, elset=b_Set-10
** Constraint: die
*Rigid Body, ref node=_PickedSet35, elset=b_Set-8
** Constraint: punch
*Rigid Body, ref node=_PickedSet39, elset=b_Set-12
*Elset, elset=__sheet-blankholder_msm_3_SNEG, internal, instance=blankholder-1, generate
  865,  1152,     1
*Surface, type=ELEMENT, name=_sheet-blankholder_msm_3, internal
__sheet-blankholder_msm_3_SNEG, SNEG
*Elset, elset=__sheet-blankholder_msm_4_SNEG, internal, instance=blankholder-1, generate
 1153,  1728,     1
*Surface, type=ELEMENT, name=_sheet-blankholder_msm_4, internal
__sheet-blankholder_msm_4_SNEG, SNEG
*Elset, elset=__sheet-blankholder_msm_5_SNEG, internal, instance=blankholder-1, generate
 1729,  2016,     1
*Surface, type=ELEMENT, name=_sheet-blankholder_msm_5, internal
__sheet-blankholder_msm_5_SNEG, SNEG
*Elset, elset=__sheet-die_msm_1_SNEG, internal, instance=die-1, generate
   1,  864,    1
*Surface, type=ELEMENT, name=_sheet-die_msm_1, internal
__sheet-die_msm_1_SNEG, SNEG
*Elset, elset=__sheet-die_msm_2_SNEG, internal, instance=die-1, generate
  865,  2592,     1
*Surface, type=ELEMENT, name=_sheet-die_msm_2, internal
__sheet-die_msm_2_SNEG, SNEG
*Elset, elset=__sheet-die_msm_6_SNEG, internal, instance=die-1, generate
 5473,  6336,     1
*Surface, type=ELEMENT, name=_sheet-die_msm_6, internal
__sheet-die_msm_6_SNEG, SNEG
*Elset, elset=__sheet-punch_msm_1_SNEG, internal, instance=punch-1, generate
   1,  864,    1
*Surface, type=ELEMENT, name=_sheet-punch_msm_1, internal
__sheet-punch_msm_1_SNEG, SNEG
*Elset, elset=__sheet-punch_msm_5_SNEG, internal, instance=punch-1, generate
 1621,  2484,     1
*Surface, type=ELEMENT, name=_sheet-punch_msm_5, internal
__sheet-punch_msm_5_SNEG, SNEG
*Elset, elset=__sheet-punch_msm_6_SNEG, internal, instance=punch-1, generate
 2485,  3348,     1
*Surface, type=ELEMENT, name=_sheet-punch_msm_6, internal
__sheet-punch_msm_6_SNEG, SNEG
*Elset, elset=__sheet-punch_msm_7_SNEG, internal, instance=punch-1, generate
 3349,  4212,     1
*Surface, type=ELEMENT, name=_sheet-punch_msm_7, internal
__sheet-punch_msm_7_SNEG, SNEG
*End Assembly
** 
** MATERIALS
** 
*Material, name=elastic
*Density
 7.8e-09,
*Elastic
 200000., 0.3
*Material, name=sheet
*Density
 7.8e-09,
*User Material, constants=30
 0, 0, 200000.0, 0.3, 2, 0.802064, -0.371744, 1.730877,
 0.111897, 1.786988, 1.759011, 1.0, 1.0, 1.514999, 0.149032, 0.137615,
 0.843118, -1.095887, 1.450332, 1.897261, 1.0, 1.0, -0.011837, 2.8455,
 2, 541.0, 0.0036, 0.249, 0, 0
**
*Depvar
 4
 1 , PEEQ
 2 , PE11
 3 , PE22
 4 , PE12
*User Output Variables
 2, 
** 
** INTERACTION PROPERTIES
** 
*Surface Interaction, name=sheet-blankholder
 1.,
*Friction, slip tolerance=0.005
 0.15,
*Surface Interaction, name=sheet-die
 1.,
*Friction, slip tolerance=0.005
 0.15,
*Surface Interaction, name=sheet-punch
 1.,
*Friction, slip tolerance=0.005
 0.03,
*Surface Smoothing, name=sheet-blankholder
 , _sheet-blankholder_msm_3, TOROIDAL, -7.10543e-15, -1.77636e-14, -5., -1.62965e-15, -1.91021e-14, -4., 60.
 , _sheet-blankholder_msm_4, TOROIDAL, -7.10543e-15, -1.77636e-14, -5., -1.62965e-15, -1.91021e-14, -4., 60.
 , _sheet-blankholder_msm_5, TOROIDAL, -7.10543e-15, -1.77636e-14, -5., -1.62965e-15, -1.91021e-14, -4., 60.
*Surface Smoothing, name=sheet-die
 , _sheet-die_msm_1, TOROIDAL, 0., 7.10543e-15, 15.66, 1.01361e-15, 6.7124e-15, 16.66, 80.
 , _sheet-die_msm_2, TOROIDAL, 0., 7.10543e-15, 15.66, 1.01361e-15, 6.7124e-15, 16.66, 80.
 , _sheet-die_msm_6, TOROIDAL, 0., 7.10543e-15, 15.66, 1.01361e-15, 6.7124e-15, 16.66, 80.
*Surface Smoothing, name=sheet-punch
 , _sheet-punch_msm_1, TOROIDAL, 2.73559e-13, -7.81597e-14, -15., 2.77988e-13, -7.92794e-14, -14., 35.
 , _sheet-punch_msm_5, TOROIDAL, 2.73559e-13, -7.81597e-14, -15., 2.77988e-13, -7.92794e-14, -14., 35.
 , _sheet-punch_msm_6, TOROIDAL, 2.73559e-13, -7.81597e-14, -15., 2.77988e-13, -7.92794e-14, -14., 35.
 , _sheet-punch_msm_7, TOROIDAL, 2.73559e-13, -7.81597e-14, -15., 2.77988e-13, -7.92794e-14, -14., 35.
** 
** BOUNDARY CONDITIONS
** 
** Name: blankholder
*Boundary
 Set-3, ENCASTRE
** Name: die
*Boundary
 Set-4, ENCASTRE
** Name: sheet-xsym
*Boundary
 Set-7, XSYMM
** Name: sheet-ysymm
*Boundary
 Set-6, YSYMM
** 
** INTERACTIONS
** 
** Interaction: sheet-blankholder
*Contact Pair, interaction=sheet-blankholder, type=SURFACE TO SURFACE, geometric correction=sheet-blankholder
 sheet-down, blankholder
** Interaction: sheet-die
*Contact Pair, interaction=sheet-die, type=SURFACE TO SURFACE, geometric correction=sheet-die
**Sheet-up, die
die, Sheet-up
** Interaction: sheet-punch
*Contact Pair, interaction=sheet-punch, type=SURFACE TO SURFACE, geometric correction=sheet-punch
**sheet-down, punch
punch, sheet-down
** ----------------------------------------------------------------
** 
** STEP: Step-1
** 
*Step, name=Step-1, nlgeom=YES, inc=1000
 Step-1
*Static
 0.001, 1., 1e-06, 0.01
** 
** BOUNDARY CONDITIONS
** 
** Name: punch
*Boundary
 Set-2, 1, 1
 Set-2, 2, 2
 Set-2, 3, 3, 30.
 Set-2, 4, 4
 Set-2, 5, 5
 Set-2, 6, 6
** Name: sheet-fix
*Boundary
 Set-5, 1, 1
 Set-5, 2, 2
 Set-5, 3, 3
 Set-5, 4, 4
 Set-5, 5, 5
 Set-5, 6, 6
** 
** OUTPUT REQUESTS
** 
*Restart, write, frequency=0
** 
** FIELD OUTPUT: F-Output-1
** 
*Output, field, variable=PRESELECT
*Element Output, elset=SHEET-1.SET-2, directions=YES
 STH, SDV, UVARM
** 
** HISTORY OUTPUT: H-Output-1
** 
*Output, history, variable=PRESELECT
*End Step
