*KEYWORD
$> 
$> Primer15.0 created on: Sat Dec 22 12:17:54 2018
$> LS-DYNA version: R7.1
$> 
$> model title: lsform - Drawing process
$>
$# LS-DYNA Keyword file created by LS-PrePost 4.0 - 28Jan2013(19:00)
$# Created on Apr-07-2016 (10:49:03)
$> end_saved_comments
$
$
*TITLE
lsform - Drawing process
$
$
$
$ =============
$ CONTROL cards
$ =============
$
*CONTROL_ACCURACY
$#     osu       inn    pidosu
         0         1         0
*CONTROL_BULK_VISCOSITY
$#      q1        q2      type     btype
       1.5    6.0E-2         1         0
*CONTROL_CONTACT
$#  slsfac    rwpnal    islchk    shlthk    penopt    thkchg     orien    enmass
       0.1       0.0         2         1         4         0         1         0
$#  usrstr    usrfrc     nsbcs    interm     xpene     ssthk      ecdt   tiedprj
         0         0        10         0       4.0         0         0         0
$#   sfric     dfric       edc       vfc        th     th_sf    pen_sf
       0.0       0.0       0.0       0.0       0.0       0.0       0.0       0.0
$#  ignore    frceng   skiprwg    outseg   spotstp   spotdel   spothin
         0         0         0         0         0         0       0.0
$#    isym    nserod    rwgaps    rwgdth     rwksf      icov    swradf    ithoff
         0         0         0       0.0       1.0         0       0.0         0
*CONTROL_ENERGY
$#    hgen      rwen    slnten     rylen
         2         1         2         1
*CONTROL_HOURGLASS
$#     ihq        qh
         5       0.1
*CONTROL_IMPLICIT_GENERAL
         1    3.1E-4         0         0         0         0         0         0
*CONTROL_IMPLICIT_SOLUTION
        12        11        15    1.0E-3    1.0E-2    1.0E10       0.9   1.0E-10
         2         1         1         0         2         0         0
         0         0       0.0         1         2       0.0       0.0       0.0
*CONTROL_IMPLICIT_SOLVER
         4         0         2         0         4       0.0         1       0.0
         2         0
*CONTROL_OUTPUT
$#   npopt    neecho    nrefup    iaccop     opifs    ipnint    ikedit    iflush
         1         0         0         0       0.0         0       100      5000
$#   iprtf    ierode     tet10    msgmax    ipcurv
         0         0         2        50         0       0.0         0         0
*CONTROL_RIGID
$#     lmf      jntf    orthmd     partm    sparse    metalf    plotel     rbsms
         0         0         0         0         0         1         0         0
*CONTROL_SHELL
$#  wrpang     esort     irnxx    istupd    theory       bwc     miter      proj
      20.0         1         0         1         2         2         1         0
$# rotascl    intgrd    lamsht    cstyp6    tshell
       1.0         0         0         1         0
$# psstupd   sidt4tu     cntco    itsflg    irquad
         0         0         0         0         2       0.0       0.0
*CONTROL_TERMINATION
$#  endtim    endcyc     dtmin    endeng    endmas
    3.1E-2         0       0.0       0.0       0.0         0
$
$
$ ==============
$ DATABASE cards
$ ==============
$
*DATABASE_BNDOUT
$#      dt    binary      lcur     ioopt
    3.1E-4         0         0         1
*DATABASE_GLSTAT
$#      dt    binary      lcur     ioopt
    3.1E-4         0         0         1
*DATABASE_MATSUM
$#      dt    binary      lcur     ioopt
    3.1E-4         0         0         1
*DATABASE_RBDOUT
$#      dt    binary      lcur     ioopt
    3.1E-4         0         0         1
*DATABASE_RCFORC
$#      dt    binary      lcur     ioopt
    3.1E-4         3         0         1
*DATABASE_SLEOUT
$#      dt    binary      lcur     ioopt
    3.1E-4         0         0         1
*DATABASE_BINARY_D3PLOT
$#      dt      lcdt      beam     npltc    psetid
    5.0E-4         0         0         0         0
*DATABASE_EXTENT_BINARY
$#   neiph     neips    maxint    strflg    sigflg    epsflg    rltflg    engflg
         0         0         5         1         1         1         1         1
$#  cmpflg    ieverp    beamip     dcomp      shge     stssz    n3thdt   ialemat
         0         1         0         2         1         1         2         1
$# nintsld   pkp_sen      sclp    unused     msscl     therm    intout    nodout
         0         0       1.0         0         0         0STRESS        STRESS
$#    dtdt    resplt
         0         0         0
$
$
$ ====================
$ MAT (Material) cards
$ ====================
$
*MAT_USER_DEFINED_MATERIAL_MODELS
$      MID        RO        MT       LMC       NHV    IORTHO     IBULK        IG
         1    7.8E-9        41        40       100         1         2         3
$    IVECT     IFAIL    ITHERM    IHYPER      IEOS      LMCA
         0         0         0         0         0         0
$     AOPT      MACF        XP        YP        ZP        A1        A2        A3
       0.0         1       0.0       0.0       0.0       1.0       0.0       0.0
$       V1        V2        V3        D1        D2        D3      BETA
       0.0       0.0       0.0       0.0       1.0       0.0       0.0
$...... CM(*) of UMAT41 / PROP(*) of UMMDp
$  Use elastic model 1 (bulk modulus K and shear modulus G) for LS-DYNA
$  K=E/3/(1-2nu), G=E/2/(1+nu)
$  E=200E+3,nu=0.3 -> K=166666.7,G=76923.08
$     nela         K         G       nyf    cm( 5)    cm( 6)    cm( 7)    cm( 8)
       1.0 166666.67 76923.078       2.0  0.802064 -0.371744  1.730877  0.111897
$   cm( 9)    cm(10)    cm(11)    cm(12)    cm(13)    cm(14)    cm(15)    cm(16)
  1.786988  1.759011  1.514999       1.0       1.0  0.149032  0.1376150.84311801
$   cm(17)    cm(18)    cm(19)    cm(20)    cm(21)    cm(22)    cm(23)    cm(24)
-1.0958869  1.450332  1.897261-1.1837E-2       1.0       1.0    2.8455       2.0
$   cm(25)    cm(26)    cm(27)
     541.0    3.6E-3     0.249       0.0       0.0       0.0       0.0       0.0
       0.0       0.0       0.0       0.0       0.0       0.0       0.0       0.0
$
*MAT_RIGID_TITLE
Punch
$#     mid        ro         e        pr         n    couple         m     alias
         2   7.85E-9  210000.0       0.3       0.0       0.0       0.0          
$#     cmo      con1      con2
       1.0       4.0       7.0
$# lco or a1      a2        a3        v1        v2        v3
         0       0.0       0.0       0.0       0.0       0.0
$
*MAT_RIGID_TITLE
Die
$#     mid        ro         e        pr         n    couple         m     alias
         3   7.85E-9  210000.0       0.3       0.0       0.0       0.0          
$#     cmo      con1      con2
       1.0       7.0       7.0
$# lco or a1      a2        a3        v1        v2        v3
         0       0.0       0.0       0.0       0.0       0.0
$
*MAT_RIGID_TITLE
Binder
$#     mid        ro         e        pr         n    couple         m     alias
         4   7.85E-9  210000.0       0.3       0.0       0.0       0.0          
$#     cmo      con1      con2
       1.0       7.0       7.0
$# lco or a1      a2        a3        v1        v2        v3
         0       0.0       0.0       0.0       0.0       0.0
$
$
$
$ =============
$ SECTION cards
$ =============
$
*SECTION_SHELL
$#   secid    elform      shrf       nip     propt   qr/irid     icomp     setyp
         1        16       1.0         7       1.0       0.0         0         1
$#      t1        t2        t3        t4      nloc     marea      idof    edgset
      0.65      0.65      0.65      0.65       0.0       0.0       0.0         0
$
*SECTION_SHELL_TITLE
Punch
$#   secid    elform      shrf       nip     propt   qr/irid     icomp     setyp
         2         2       0.0         3       1.0       0.0         0         1
$#      t1        t2        t3        t4      nloc     marea      idof    edgset
       1.0       1.0       1.0       1.0       0.0       0.0       0.0         0
$
Die
$#   secid    elform      shrf       nip     propt   qr/irid     icomp     setyp
         3         2       0.0         3       1.0       0.0         0         1
$#      t1        t2        t3        t4      nloc     marea      idof    edgset
       1.0       1.0       1.0       1.0       0.0       0.0       0.0         0
$
Binder
$#   secid    elform      shrf       nip     propt   qr/irid     icomp     setyp
         4         2       0.0         3       1.0       0.0         0         1
$#      t1        t2        t3        t4      nloc     marea      idof    edgset
       1.0       1.0       1.0       1.0       0.0       0.0       0.0         0
$
$
$
$ ==========
$ PART cards
$ ==========
$
*PART
$# title
Part number 1
$ TABLES =======================================================================
$ MATERIALS ====================================================================
$ GEOMETRY =====================================================================
$ t0.65 : UMMDp : mech_three_shell 1
$#     pid     secid       mid     eosid      hgid      grav    adpopt      tmid
$        1         1       100         0         0         0         0         0
         1         1         1         0         0         0         0         0
$
*PART
$# title
LSHELL2
$#     pid     secid       mid     eosid      hgid      grav    adpopt      tmid
         2         2         2         0         0         0         0         0
$
*PART
$# title
LSHELL3
$#     pid     secid       mid     eosid      hgid      grav    adpopt      tmid
         3         3         3         0         0         0         0         0
$
*PART
$# title
LSHELL4
$#     pid     secid       mid     eosid      hgid      grav    adpopt      tmid
         4         4         4         0         0         0         0         0
$
$
$
$ ==========
$ NODE cards
$ ==========
$
*NODE
$#   nid               x               y               z      tc      rc
       1       15.000000             0.0      0.33000001       0       0
       2       14.985720      0.65429097      0.33000001       0       0
       3       14.942920       1.3073360      0.33000001       0       0
       4       14.871670       1.9578930      0.33000001       0       0
       5       14.772120       2.6047230      0.33000001       0       0
       6       14.644440       3.2465940      0.33000001       0       0
       7       14.488890       3.8822861      0.33000001       0       0
       8       14.305750       4.5105872      0.33000001       0       0
       9       14.095390       5.1303020      0.33000001       0       0
      10       13.858190       5.7402520      0.33000001       0       0
      11       13.594620       6.3392739      0.33000001       0       0
      12       13.305160       6.9262290      0.33000001       0       0
      13       12.990380       7.5000000      0.33000001       0       0
      14       12.650870       8.0594940      0.33000001       0       0
      15       12.287280       8.6036463      0.33000001       0       0
      16       11.900300       9.1314211      0.33000001       0       0
      17       11.490670       9.6418142      0.33000001       0       0
      18       11.059160       10.133850      0.33000001       0       0
      19       10.606600       10.606600      0.33000001       0       0
      20       10.133850       11.059160      0.33000001       0       0
$ ... 8708 like lines cut
$
$
$ =============
$ ELEMENT cards
$ =============
$
*ELEMENT_SHELL
$ NASTRAN Bulk Data File created by Marc Mentat ============================
$ File : model.bdf
$#   eid     pid      n1      n2      n3      n4      n5      n6      n7      n8
       1       1      38      39       2       1
       2       1      39      40       3       2
       3       1      40      41       4       3
       4       1      41      42       5       4
       5       1      42      43       6       5
       6       1      43      44       7       6
       7       1      44      45       8       7
       8       1      45      46       9       8
       9       1      46      47      10       9
      10       1      47      48      11      10
      11       1      48      49      12      11
      12       1      49      50      13      12
      13       1      50      51      14      13
      14       1      51      52      15      14
      15       1      52      53      16      15
      16       1      53      54      17      16
      17       1      54      55      18      17
      18       1      55      56      19      18
      19       1      56      57      20      19
      20       1      57      58      21      20
$ ... 8414 like lines cut
$
$
$ ============
$ DEFINE cards
$ ============
$
$
*DEFINE_CURVE_TITLE
Velocity curve for Die (Drawing)
$:
$: Cross-reference summary for Load-curve 1
$: -----------------------------------------------
$:
$: Structural material 1 : Auto ref from MAT_USER 1
$: X axis : X Axis                     (Units: Scalar, no units)
$: Y axis : Y Axis                     (Units: Scalar, no units)
$:
$: Boundary Prescribed Motion <No label>: Velocity vs time
$: X axis : Time                       (Units: Time)
$: Y axis : Prescribed velocity        (Units: Velocity)
$:
$: Usage: Transient analysis
$:
$
$#    lcid      sidr       sfa       sfo      offa      offo    dattyp
         1         0       1.0       1.0       0.0       0.0         0
$#                a1                  o1
                 0.0                 0.0
        1.0000000E-3           1000.0000
        2.9999999E-2           1000.0000
        3.0999999E-2                 0.0
$
$
*DEFINE_CURVE_TITLE
Velocity curve for Binder (Drawing)
$:
$: Cross-reference summary for Load-curve 2
$: -----------------------------------------------
$:
$: Structural material 1 : Auto ref from MAT_USER 1
$: X axis : X Axis                     (Units: Scalar, no units)
$: Y axis : Y Axis                     (Units: Scalar, no units)
$:
$: Usage: Transient analysis
$:
$
$#    lcid      sidr       sfa       sfo      offa      offo    dattyp
         2         0       1.0       1.0       0.0       0.0         0
$#                a1                  o1
                 0.0                 0.0
        1.0000000E-3           1000.0000
        2.9999999E-2           1000.0000
        3.0999999E-2                 0.0
$
$
$
$ ==============
$ BOUNDARY cards
$ ==============
$
*BOUNDARY_PRESCRIBED_MOTION_RIGID
         2         3         0         1       0.0         0       0.0       0.0
*BOUNDARY_SPC_SET
         1         0         0         1         0         1         0         1
$
$: Cross-reference summary for SET_NODE 1
$:---------------------------------------
$: SPC <No label>
$
*SET_NODE_LIST
         1       0.0       0.0       0.0       0.0
      1925      1962      1999      2036      2073      2110      2147      2184
      2221      2258      2295      2332      2369      2406      2443      2480
      2517      2554      2591      2628      2665      2702      2739      2776
      2813      2850      2887      2924      2961         1        38        75
       112       149       186       223       260       297       334       371
       408       445       482       519       556       593       630       667
       704       741       778       815       852       889       926       963
      1000      1037      1074      1111      1148      1185      1222      1259
      1296      1333      1370      1407      1444      1481      1518      1555
      1592      1629      1666      1703      1740      1777      1814      1851
      1888
$
*BOUNDARY_SPC_SET
         2         0         1         0         0         0         1         1
$
$: Cross-reference summary for SET_NODE 2
$:---------------------------------------
$: SPC <No label>
$
*SET_NODE_LIST
         2       0.0       0.0       0.0       0.0
        37        74       111       148       185       222       259       296
       333       370       407       444       481       518       555       592
       629       666       703       740       777       814       851       888
       925       962       999      1036      1073      1110      1147      1184
      1221      1258      1295      1332      1369      1406      1443      1480
      1517      1554      1591      1628      1665      1702      1739      1776
      1813      1850      1887      1924      1961      1998      2035      2072
      2109      2146      2183      2220      2257      2294      2331      2368
      2405      2442      2479      2516      2553      2590      2627      2664
      2701      2738      2775      2812      2849      2886      2923      2960
      2997
$
*BOUNDARY_SPC_SET
         3         0         1         1         1         1         1         1
$
$: Cross-reference summary for SET_NODE 3
$:---------------------------------------
$: SPC <No label>
$
*SET_NODE_LIST
         3       0.0       0.0       0.0       0.0
      2997      2996      2995      2994      2993      2992      2991      2990
      2989      2988      2987      2986      2985      2984      2983      2982
      2981      2980      2979      2978      2977      2976      2975      2974
      2973      2972      2971      2970      2969      2968      2967      2966
      2965      2964      2963      2962      2961
$
$
$
$ =============
$ CONTACT cards
$ =============
$
*CONTACT_SURFACE_TO_SURFACE_ID
$#     cid                                                                 title
         1Die                                                                   
$#    ssid      msid     sstyp     mstyp    sboxid    mboxid       spr       mpr
         1         2         2         2         0         0         0         0
$#      fs        fd        dc        vc       vdc    penchk        bt        dt
      0.15       0.0       0.0       0.0      20.0         0       0.0    1.0E20
$#     sfs       sfm       sst       mst      sfst      sfmt       fsf       vsf
       0.0       0.0       0.0       0.0       1.0       1.0       1.0       1.0
$
$
$: Cross-reference summary for SET_PART 1
$:---------------------------------------
$: CONTACT 1
$: CONTACT 2
$: CONTACT 3
$: INTERFACE <No label>
$
*SET_PART_LIST
$#     sid       da1       da2       da3       da4    solver
         1       0.0       0.0       0.0       0.0MECH      
$#    pid1      pid2      pid3      pid4      pid5      pid6      pid7      pid8
         1
$
$
$: Cross-reference summary for SET_PART 2
$:---------------------------------------
$: CONTACT 1
$
*SET_PART_LIST
$#     sid       da1       da2       da3       da4    solver
         2       0.0       0.0       0.0       0.0MECH      
$#    pid1      pid2      pid3      pid4      pid5      pid6      pid7      pid8
         3
$
*CONTACT_SURFACE_TO_SURFACE_ID
$#     cid                                                                 title
         2Punch                                                                 
$#    ssid      msid     sstyp     mstyp    sboxid    mboxid       spr       mpr
         1         3         2         2         0         0         0         0
$#      fs        fd        dc        vc       vdc    penchk        bt        dt
    3.0E-2       0.0       0.0       0.0      20.0         0       0.0    1.0E20
$#     sfs       sfm       sst       mst      sfst      sfmt       fsf       vsf
       0.0       0.0       0.0       0.0       1.0       1.0       1.0       1.0
$
$
$: Cross-reference summary for SET_PART 3
$:---------------------------------------
$: CONTACT 2
$
*SET_PART_LIST
$#     sid       da1       da2       da3       da4    solver
         3       0.0       0.0       0.0       0.0MECH      
$#    pid1      pid2      pid3      pid4      pid5      pid6      pid7      pid8
         2
$
*CONTACT_SURFACE_TO_SURFACE_ID
$#     cid                                                                 title
         3Binder                                                                
$#    ssid      msid     sstyp     mstyp    sboxid    mboxid       spr       mpr
         1         4         2         2         0         0         0         0
$#      fs        fd        dc        vc       vdc    penchk        bt        dt
      0.15       0.0       0.0       0.0      20.0         0       0.0    1.0E20
$#     sfs       sfm       sst       mst      sfst      sfmt       fsf       vsf
       0.0       0.0       0.0       0.0       1.0       1.0       1.0       1.0
$
$
$: Cross-reference summary for SET_PART 4
$:---------------------------------------
$: CONTACT 3
$
*SET_PART_LIST
$#     sid       da1       da2       da3       da4    solver
         4       0.0       0.0       0.0       0.0MECH      
$#    pid1      pid2      pid3      pid4      pid5      pid6      pid7      pid8
         4
$
$
$
$ ===============
$ INTERFACE cards
$ ===============
$
*INTERFACE_SPRINGBACK_LSDYNA
$#    psid      nshv     ftype
         1       100         0                   0         0                   0
$
$
$ =========
$ SET cards
$ =========
$
$
*END
