*KEYWORD
$> 
$> Primer13.1 created on: Wed Jul 04 14:26:52 2018
$> LS-DYNA version: R7.1
$> 
$> end_saved_comments
$
$
$
$ =============
$ CONTROL cards
$ =============
$
*CONTROL_IMPLICIT_AUTO
$#   iauto    iteopt    itewin     dtmin     dtmax     dtexp
         1         0         0       0.0    1.0E-2       0.0         0         0
*CONTROL_IMPLICIT_GENERAL
$#  imflag       dt0    imform      nsbs       igs     cnstn      form    zero_v
         1    1.0E-2         0         0         0         0         0         0
*CONTROL_IMPLICIT_SOLUTION
$#  nsolvr    ilimit    maxref     dctol     ectol     rctol     lstol    abstol
        12         1       100       0.0       0.0       0.0       0.0       0.0
$#   dnorm    diverg     istif   nlprint    nlnorm   d3itctl     cpchk
         1         0         0         2         0         0         0
*CONTROL_IMPLICIT_SOLVER
$#  lsolvr    lprint     negev     order      drcm    drcprm   autospc   autotol
         0         0         0         0         0       0.0         0       0.0
*CONTROL_TERMINATION
$#  endtim    endcyc     dtmin    endeng    endmas
       9.0         0       0.0       0.0       0.0         0
$
$
$ ==============
$ DATABASE cards
$ ==============
$
*DATABASE_ELOUT
    1.0E-2         0         0         0
*DATABASE_GLSTAT
    1.0E-2         0         0         0
*DATABASE_MATSUM
    1.0E-2         0         0         0
*DATABASE_BINARY_D3PLOT
    1.0E-2         0         0         0         0
*DATABASE_EXTENT_BINARY
       100       100         0         1         0         0         0         0
         0         0         0         0         0         0         0         0
         0         0       0.0         0         0         0                    
         0         0         0
$
*DATABASE_HISTORY_SHELL
         1
$
$
$ ====================
$ MAT (Material) cards
$ ====================
$
*MAT_USER_DEFINED_MATERIAL_MODELS
$      MID        RO        MT       LMC       NHV    IORTHO     IBULK        IG
         1    7.8E-9        41        40       100         1         2         3
$    IVECT     IFAIL    ITHERM    IHYPER      IEOS      LMCA
         0         0         0         0         0         0
$     AOPT      MACF        XP        YP        ZP        A1        A2        A3
       0.0         1       0.0       0.0       0.0       1.0       0.0       0.0
$       V1        V2        V3        D1        D2        D3      BETA
       0.0       0.0       0.0       0.0       1.0       0.0       0.0
$...... CM(*) of UMAT41 / PROP(*) of UMMDp
$  Use elastic model 1 (bulk modulus K and shear modulus G) for LS-DYNA
$  K=E/3/(1-2nu), G=E/2/(1+nu)
$     nela         K         G       nyf    cm( 5)    cm( 6)    cm( 7)    cm( 8)
$      1.0  166666.7 76923.078       2.0-6.9888E-20.93640798 7.9143E-2   1.00306
       1.0 833.33301 384.61539       2.0-6.9888E-20.93640798 7.9143E-2   1.00306
$   cm( 9)    cm(10)    cm(11)    cm(12)    cm(13)    cm(14)    cm(15)    cm(16)
0.52474099   1.363180.95432198   1.02377   1.069060.981171010.476740990.57531601
$   cm(17)    cm(18)    cm(19)    cm(20)    cm(21)    cm(22)    cm(23)    cm(24)
0.86682701   1.14501-7.9294E-2 1.4046201 1.0516599    1.1471       8.0       0.0
$   cm(25)    cm(26)
       1.0       0.0       0.0       0.0       0.0       0.0       0.0       0.0
       0.0       0.0       0.0       0.0       0.0       0.0       0.0       0.0
$
$
$
$ =============
$ SECTION cards
$ =============
$
*SECTION_SHELL
$#   secid    elform      shrf       nip     propt   qr/irid     icomp     setyp
         1         2       0.0         0       1.0       0.0         0         1
$#      t1        t2        t3        t4      nloc     marea      idof    edgset
       1.0       1.0       1.0       1.0       0.0       0.0       0.0         0
$
$
$
$ ==========
$ PART cards
$ ==========
$
*PART
$PR_PART_COL 1 78005561

         1         1         1         0         0         0         0         0
$
$
$
$ ==========
$ NODE cards
$ ==========
$
*NODE
       1             0.0             0.0             0.0       0       0
       2      0.50000000             0.0             0.0       0       0
       3       1.0000000             0.0             0.0       0       0
       4             0.0      0.50000000             0.0       0       0
       5      0.50000000      0.50000000             0.0       0       0
       6       1.0000000      0.50000000             0.0       0       0
       7             0.0       1.0000000             0.0       0       0
       8      0.50000000       1.0000000             0.0       0       0
       9       1.0000000       1.0000000             0.0       0       0
$
$
$ =============
$ ELEMENT cards
$ =============
$
*ELEMENT_SHELL
       1       1       1       2       5       4
       2       1       2       3       6       5
       3       1       5       6       9       8
       4       1       4       5       8       7
$
$
$ ============
$ DEFINE cards
$ ============
$
*DEFINE_COORDINATE_NODES
         1         1         3         7         0         X
$
$
*DEFINE_CURVE
$
$: Cross-reference summary for Load-curve 1
$: -----------------------------------------------
$
$: Structural material 1 : Auto ref from MAT_USER 1
$: X axis : X Axis                     (Units: Scalar, no units)
$: Y axis : Y Axis                     (Units: Scalar, no units)
$
$: Boundary Prescribed Motion <No label>: Displacement vs time
$: X axis : Time                       (Units: Time)
$: Y axis : Prescribed displacement    (Units: Displacement)
$
$: Usage: Transient analysis
$
$
$#    lcid      sidr       sfa       sfo      offa      offo    dattyp
         1         0       0.0    1.0E-2       0.0       0.0         0
$#                a1                  o1
                 0.0                 0.0
           1.0000000           1.0000000
           2.0000000           2.0000000
           3.0000000           2.0000000
           4.0000000           2.0000000
           5.0000000           1.0000000
           6.0000000                 0.0
           7.0000000                 0.0
           8.0000000                 0.0
           9.0000000                 1.0
$
$
*DEFINE_CURVE
$
$: Cross-reference summary for Load-curve 2
$: -----------------------------------------------
$
$: Structural material 1 : Auto ref from MAT_USER 1
$: X axis : X Axis                     (Units: Scalar, no units)
$: Y axis : Y Axis                     (Units: Scalar, no units)
$
$: Boundary Prescribed Motion <No label>: Displacement vs time
$: X axis : Time                       (Units: Time)
$: Y axis : Prescribed displacement    (Units: Displacement)
$
$: Usage: Transient analysis
$
$
$#    lcid      sidr       sfa       sfo      offa      offo    dattyp
         2         0       0.0    1.0E-2       0.0       0.0         0
$#                a1                  o1
                 0.0                 0.0
           1.0000000                 0.0
           2.0000000                 0.0
           3.0000000           1.0000000
           4.0000000           2.0000000
           5.0000000           2.0000000
           6.0000000           2.0000000
           7.0000000           1.0000000
           8.0000000                 0.0
           9.0000000                 0.0
$
$
$
$ ==============
$ BOUNDARY cards
$ ==============
$
*BOUNDARY_PRESCRIBED_MOTION_SET
$#    nsid       dof       vad      lcid        sf       vid     death     birth
         1         1         2         1       0.0         0       0.0       0.0
$
$: Cross-reference summary for SET_NODE 1
$:---------------------------------------
$: PRESCRIBED_MOTION <No label>
$
*SET_NODE_LIST
         1       0.0       0.0       0.0       0.0
         9         3         6
$
*BOUNDARY_PRESCRIBED_MOTION_SET
$#    nsid       dof       vad      lcid        sf       vid     death     birth
         2         2         2         2       0.0         0       0.0       0.0
$
$: Cross-reference summary for SET_NODE 2
$:---------------------------------------
$: PRESCRIBED_MOTION <No label>
$
*SET_NODE_LIST
         2       0.0       0.0       0.0       0.0
         7         9         8
$
*BOUNDARY_SPC_NODE
         1         0         1         1         1         1         1         1
         3         0         0         1         1         1         1         1
         7         0         1         0         1         1         1         1
         2         0         0         1         1         1         1         1
         4         0         1         0         1         1         1         1
$BOUNDARY_SPC_SET
$        3         0         0         0         1         0         0         0
$
$: Cross-reference summary for SET_NODE 3
$:---------------------------------------
$: SPC <No label>
$
*SET_NODE_LIST
         3       0.0       0.0       0.0       0.0
         1         3         7         9         5         2         6         8
         4
$
$
$
$ =========
$ SET cards
$ =========
$
$
*END
